ipss.test.plugin.core/testData/adpter/bpa/Test009bpa.DAT
(POWERFLOW,CASEID=EMS,PROJECT=TEST)
/P_INPUT_LIST,FULL\
/P_OUTPUT_LIST,FULL\
/P_ANALYSIS_RPT,LEVEL=4\
/NEW_BASE,FILE=009bpa.BSE\
/NETWORK_DATA\
.234567890*234567890*234567890*234567890*234567890*234567890*234567890*234567890
BS    bus-1    100 1                      71.6499990-99991040                                                                                                                                                                                                                                              
BQ    bus-2    100 1                      163. 99990-99991025                                                                                                                                                                                                                                              
BQ    bus-3    100 1                      85.  99990-99991025                                                                                                                                                                                                                                              
B     bus-4    100 1                                                                                                                                                                                                                                                                                       
B     bus-5    100 1125. 50.                                                                                                                                                                                                                                                                               
B     bus-6    100 190.  30.                                                                                                                                                                                                                                                                               
B     bus-7    100 1                                                                                                                                                                                                                                                                                       
B     bus-8    100 1100. 35.                                                                                                                                                                                                                                                                               
B     bus-9    100 1                                                                                                                                                                                                                                                                                       
-999
.234567890*234567890*234567890*234567890*234567890*234567890*234567890*234567890
.234567890*234567890*234567890*234567890*234567890*234567890*234567890*234567890
L     bus-8    100 bus-7    100       .0085 .072        .0745                                                                                                                                                                                                                                              
L     bus-8    100 bus-9    100       .0119 .1008       .1045                                                                                                                                                                                                                                              
L     bus-5    100 bus-7    100       .032  .161        .153                                                                                                                                                                                                                                               
L     bus-6    100 bus-9    100       .039  .17         .179                                                                                                                                                                                                                                               
L     bus-4    100 bus-5    100       .01   .085        .088                                                                                                                                                                                                                                               
L     bus-4    100 bus-6    100       .017  .092        .079                                                                                                                                                                                                                                               
T     bus-1    100 bus-4    100             .0576             100. 100.                                                                                                                                                                                                                                    
T     bus-2    100 bus-7    100             .0625             100. 100.                                                                                                                                                                                                                                    
T     bus-3    100 bus-9    100             .0586             100. 100.                                                                                                                                                                                                                                    
.234567890*234567890*234567890*234567890*234567890*234567890*234567890*234567890
(END)